$ NASTRAN input file created by the Patran 2011 64-Bit input file
$ translator on April     14, 2018 at 05:00:14.
$ Direct Text Input for Nastran System Cell Section
$ Direct Text Input for File Management Section
$ Direct Text Input for Executive Control
$ Linear Static Analysis, Database
SOL 101
CEND
$ Direct Text Input for Global Case Control Data
TITLE = MSC.Nastran job created on 13-Apr-18 at 21:45:00
ECHO = NONE
SUBCASE 1
$ Subcase name : Default
   SUBTITLE=Default
   SPC = 2
   LOAD = 2
   DISPLACEMENT(SORT1,REAL)=ALL
   SPCFORCES(SORT1,REAL)=ALL
   STRESS(SORT1,REAL,VONMISES,BILIN)=ALL
BEGIN BULK
$ Direct Text Input for Bulk Data
PARAM    POST    0
PARAM   PRTMAXIM YES
$ Elements and Element Properties for region : P1
PSOLID   1       1       0
$ Pset: "P1" will be imported as: "psolid.1"
CTETRA   1       1       10      187     151     149     12      232
         13      11      231     150
CTETRA   2       1       10      129     151     189     16      107
         13      14      15      233
CTETRA   3       1       10      149     151     127     11      150
         13      17      105     106
CTETRA   4       1       9       216     155     133     19      20
         21      18      254     111
CTETRA   5       1       9       135     216     133     22      253
         19      18      134     254
CTETRA   6       1       9       218     157     195     24      25
         26      23      176     239
CTETRA   7       1       9       193     218     195     27      175
         24      23      194     176
CTETRA   8       1       9       218     193     216     24      175
         27      19      217     174
CTETRA   9       1       9       157     218     135     26      25
         24      22      113     252
CTETRA   10      1       8       218     197     195     29      177
         30      28      176     196
CTETRA   11      1       8       157     218     195     31      25
         29      28      239     176
CTETRA   12      1       8       220     137     159     34      250
         35      32      33      115
CTETRA   13      1       8       220     135     137     34      251
         36      35      250     136
CTETRA   14      1       8       220     159     197     34      33
         32      30      178     241
CTETRA   15      1       8       218     157     135     29      25
         31      36      252     113
CTETRA   16      1       7       220     197     159     38      178
         39      37      33      241
CTETRA   17      1       7       220     199     197     38      179
         40      39      178     198
CTETRA   18      1       7       220     159     137     38      33
         37      41      250     115
CTETRA   19      1       7       199     222     161     40      180
         44      42      243     43
CTETRA   20      1       7       220     137     139     38      250
         41      45      249     138
$ ... 200 like lines cut
$ Referenced Material Records
$ Material Record : STEEL
$ Description of Material : Date: 13-Apr-18           Time: 21:41:56
MAT1     1      200000.         .3      7.8-9
$ Nodes of the Entire Model
GRID     1              5.03452 4.96549 142.451
GRID     2              5.      5.      82.4955
GRID     3              4.21798 4.85547 37.729
GRID     4              5.13171 4.76296 22.2039
GRID     5              4.96909 5.40597 7.86979
GRID     6              5.02921 5.02921 67.5363
GRID     7              4.97071 5.02929 127.548
GRID     8              5.      5.      112.502
GRID     9              5.      5.      97.4985
GRID     10             5.02921 5.02921 52.4457
GRID     11             2.5146  7.5146  48.7168
GRID     12             2.5146  2.5146  48.7168
GRID     13             2.5146  7.5146  56.2183
GRID     14             2.5146  2.5146  56.2183
GRID     15             5.      5.      59.991
GRID     16             7.5146  7.5146  56.2183
GRID     17             7.5146  7.5146  48.7168
GRID     18             7.5     7.5     93.7477
GRID     19             7.5     2.5     93.7477
GRID     20             5.      5.      89.997
$ ... 249 like lines cut
$ Loads for Load Case : Default
SPCADD   2       1
LOAD     2      1.      1.       1
$ Displacement Constraints of Load Set : BC1
SPC1     1       123     141     142     143     201     203     204
         245     267     269
$ Nodal Forces of Load Set : Load1
FORCE    1       246     0      100.    1.       0.      0.
$ Referenced Coordinate Frames
ENDDATA eeca6cb6
