$ NASTRAN input file created by the Patran 2011 64-Bit input file
$ translator on April     15, 2018 at 06:45:24.
$ Direct Text Input for Nastran System Cell Section
$ Direct Text Input for File Management Section
$ Direct Text Input for Executive Control
$ Linear Static Analysis, Database
SOL 101
CEND
$ Direct Text Input for Global Case Control Data
TITLE = MSC.Nastran job created on 13-Apr-18 at 22:02:31
ECHO = NONE
SUBCASE 1
$ Subcase name : Default
   SUBTITLE=Default
   SPC = 2
   LOAD = 2
   DISPLACEMENT(SORT1,REAL)=ALL
   SPCFORCES(SORT1,REAL)=ALL
   STRESS(SORT1,REAL,VONMISES,BILIN)=ALL
BEGIN BULK
$ Direct Text Input for Bulk Data
PARAM    POST    0
PARAM   PRTMAXIM YES
$ Elements and Element Properties for region : P1
PSOLID   1       1       0
$ Pset: "P1" will be imported as: "psolid.1"
CTETRA   1       1       520     1123    846     24      28      29
         30      25      26      27
CTETRA   2       1       1122    23      24      1125    33      34
         35      1302    31      32
CTETRA   3       1       1125    1122    1123    24      1302    1190
         1251    32      35      26
CTETRA   4       1       24      595     1123    1125    36      1250
         26      32      1252    1251
CTETRA   5       1       24      23      848     22      34      40
         41      37      38      39
CTETRA   6       1       24      1125    23      22      32      31
         34      37      42      38
CTETRA   7       1       552     22      593     24      45      46
         518     43      37      44
CTETRA   8       1       486     21      1096    724     48      49
         1225    1226    47      1224
CTETRA   9       1       20      19      18      1118    53      54
         55      50      51      52
CTETRA   10      1       698     17      1135    638     57      58
         1278    1279    56      1277
CTETRA   11      1       1310    1117    1328    1118    1147    60
         1333    1149    1148    59
CTETRA   12      1       20      19      832     841     53      63
         64      61      62      903
CTETRA   13      1       20      19      1118    1109    53      51
         50      65      66      1180
CTETRA   14      1       20      16      15      832     69      70
         71      64      67      68
CTETRA   15      1       20      1109    16      832     65      73
         69      64      72      67
CTETRA   16      1       14      826     1205    1103    76      77
         78      74      75      1204
CTETRA   17      1       14      826     611     568     76      80
         81      79      818     502
CTETRA   18      1       14      826     928     1205    76      927
         83      78      77      82
CTETRA   19      1       14      826     568     569     76      818
         79      84      964     549
CTETRA   20      1       14      928     826     828     83      927
         76      85      803     965
$ ... 1244 like lines cut
$ Referenced Material Records
$ Material Record : STEEL
$ Description of Material : Date: 13-Apr-18           Time: 22:00:14
MAT1     1      200000.         .3      7.8-9
$ Nodes of the Entire Model
GRID     1              52.7464 3.46049 .840191
GRID     2              46.3228 3.21669 .887515
GRID     3              50.7219 -2.27557.992762
GRID     4              49.6072 -2.594691.0971
GRID     5              51.713  -1.80607.986284
GRID     6              52.3673 -.459402.914998
GRID     7              46.7915 -.7480881.01074
GRID     8              46.0154 .265625 .972049
GRID     9              50.4935 -3.0559 .957884
GRID     10             50.4527 -3.78137.721875
GRID     11             51.6038 -3.57222.955587
GRID     12             47.861  -1.60408.939623
GRID     13             48.7243 -2.39061.978912
GRID     14             56.4002 -3.33203.980268
GRID     15             49.5162 2.42183 1.02242
GRID     16             47.9494 3.42045 1.04093
GRID     17             3.07608 2.46778 1.01289
GRID     18             47.8223 -.026783.972799
GRID     19             47.2271 1.16364 1.02014
GRID     20             48.1823 1.60399 1.08371
$ ... 433 like lines cut
GRID*    454                            78.0804         -7.68781-4
*       1.
GRID     455            88.9627 -2.588981.
GRID     456            85.926  -2.5149 1.
GRID     457            76.5383 2.49962 1.
GRID     458            73.3094 2.51561 1.
GRID     459            79.6727 -2.500391.
GRID     460            76.5471 -2.500391.
GRID     461            73.3182 -2.484391.
GRID     462            82.8004 -2.5149 1.
GRID     463            74.8515 .01522861.
GRID     464            49.6232 3.98714 1.
GRID     465            42.8045 3.53899 1.
GRID     466            61.5554 3.88736 1.
GRID     467            29.6585 -2.513131.
GRID     468            20.2795 -2.512861.
GRID     469            26.5328 -2.513131.
GRID     470            32.676  -2.572081.
GRID*    471                            51.5            -1.49012-7
*        0.
GRID*    472                            51.5            -1.49012-7
*       2.
GRID     473            100.    -2.5    1.
GRID*    474                            100.            4.-7
*       1.
GRID     475            100.    2.5     1.
GRID     476            100.    -5.     1.
GRID     477            100.    -5.      0.
GRID     478            100.    -5.     2.
GRID     479            100.    2.5      0.
GRID*    480                            100.            4.-7
*        0.
GRID     481            100.    -2.5     0.
GRID     482            100.    5.       0.
GRID     483            100.    5.      1.
GRID     484            100.    5.      2.
GRID     485            100.    2.5     2.
GRID*    486                            100.            4.-7
*       2.
GRID     487            100.    -2.5    2.
GRID     488            45.7354 -5.     1.
GRID     489            55.4122 -5.     1.5
GRID     490            53.7165 -5.     1.5
GRID     491            53.7165 -5.     .5
GRID     492            55.4122 -5.     .5
GRID     493            49.3463 -5.     .5
GRID     494            49.3463 -5.     1.5
GRID     495            48.0213 -5.     1.5
GRID     496            48.0213 -5.     .5
GRID     497            44.7205 -5.     1.
GRID     498            51.3762 -5.     1.
GRID     499            52.1227 -5.     1.
GRID     500            40.9796 -5.     1.
GRID     501            39.243  -5.     1.
GRID     502            58.8935 -5.     1.
GRID     503            57.5768 -5.     1.
GRID     504            3.125   -5.     1.
GRID     505            6.25    -5.     1.
GRID     506            9.37563 -5.     1.
$ ... 122 like lines cut
GRID*    629                             0.             -4.-7
*       1.
GRID     630             0.     -2.5    1.
GRID     631             0.     5.      1.
GRID     632             0.     5.       0.
GRID     633             0.     5.      2.
GRID     634             0.     -2.5     0.
GRID*    635                             0.             -4.-7
*        0.
GRID     636             0.     2.5      0.
GRID     637             0.     -2.5    2.
GRID*    638                             0.             -4.-7
*       2.
GRID     639             0.     2.5     2.
GRID     640            53.5675 5.      1.5
GRID     641            55.3508 5.      1.5
GRID     642            55.3508 5.      .5
GRID     643            53.5675 5.      .5
GRID     644            40.9373 5.      1.
GRID     645            42.347  5.      1.
GRID     646            47.6133 5.      1.5
GRID     647            49.1986 5.      1.5
GRID     648            49.1986 5.      .5
GRID     649            47.6133 5.      .5
GRID     650            59.0279 5.      1.
GRID     651            60.7609 5.      1.
GRID     652            96.875  5.      1.
GRID     653            93.75   5.      1.
GRID     654            90.6244 5.      1.
GRID     655            87.4988 5.      1.
GRID     656            84.3731 5.      1.
GRID     657            81.2475 5.      1.
GRID     658            78.1219 5.      1.
$ ... 163 like lines cut
GRID*    822                            78.0804         -7.69494-4
*        0.
GRID     823            71.6226 .0312151 0.
GRID     824            64.1606 .185291  0.
GRID     825            59.6408 .829649  0.
GRID     826            58.9857 -2.18021 0.
GRID     827            54.2035 .575981  0.
GRID     828            54.8086 -1.8603  0.
GRID     829            52.7334 2.12982  0.
GRID     830            50.9489 2.95464  0.
GRID     831            49.253  2.97398  0.
GRID     832            47.5154 2.61     0.
GRID     833            52.5297 .343084  0.
GRID     834            52.2789 -1.32488 0.
GRID     835            52.5156 -3.28808 0.
GRID     836            50.9961 -1.78134 0.
GRID     837            51.3725 -2.5039  0.
GRID     838            50.2414 -2.52942 0.
GRID     839            50.7655 -3.62966 0.
GRID     840            48.6963 1.81344  0.
GRID     841            47.8266 .882091  0.
GRID     842            47.9332 -.567067 0.
$ ... 192 like lines cut
GRID*    1035                           48.5            2.16627-5
*        0.
GRID     1036           48.6049 -.554521 0.
GRID     1037           48.9202 -1.04252 0.
GRID     1038           49.4302 -1.38871 0.
GRID     1039           51.3758 .603701  0.
GRID     1040           51.044  1.07822  0.
GRID     1041           50.5659 1.38919  0.
GRID     1042           62.3889 1.47999 2.
GRID     1043           60.1291 1.80213 2.
GRID     1044           61.5554 3.88734 2.
GRID     1045           59.8224 3.88734 2.
GRID     1046           56.4618 2.75113 2.
GRID     1047           57.054  3.90648 2.
GRID     1048           58.7534 1.82127 2.
GRID     1049           58.4466 3.90648 2.
GRID     1050           45.0393 -.3928172.
GRID     1051           45.465  -1.639262.
GRID     1052           46.2691 -.39219 2.
GRID     1053           45.7191 -.0968062.
GRID     1054           41.4114 3.53899 2.
GRID     1055           44.7423 -1.286752.
$ ... 43 like lines cut
GRID*    1099                           78.0804         -7.68068-4
*       2.
GRID     1100           71.6226 .03122662.
GRID     1101           64.1606 .185299 2.
GRID     1102           59.6411 .82957  2.
GRID     1103           58.9861 -2.180172.
GRID     1104           54.2062 .574418 2.
GRID     1105           54.8105 -1.859832.
GRID     1106           52.7377 2.12502 2.
GRID     1107           50.9523 2.95076 2.
GRID     1108           49.2551 2.97428 2.
GRID     1109           47.5182 2.61122 2.
GRID     1110           52.5346 .33955  2.
GRID     1111           52.2842 -1.320782.
GRID     1112           52.5176 -3.2868 2.
GRID     1113           51.0026 -1.774612.
GRID     1114           51.376  -2.500962.
GRID     1115           50.2446 -2.527752.
GRID     1116           50.7677 -3.628672.
GRID     1117           48.7019 1.81742 2.
GRID     1118           47.8323 .884733 2.
GRID     1119           47.9405 -.57021 2.
$ ... 192 like lines cut
GRID*    1312                           48.5            2.16625-5
*       2.
GRID     1313           48.6155 -.5724192.
GRID     1314           48.9384 -1.058912.
GRID     1315           49.4285 -1.385942.
GRID     1316           51.3818 .573583 2.
GRID     1317           51.0578 1.05948 2.
GRID     1318           50.5744 1.38499 2.
GRID     1319           51.0554 -1.063841.
GRID     1320           50.5717 -1.3872 .5
GRID     1321           51.0457 -1.0734 .5
GRID     1322           51.3845 -.578052.5
GRID     1323           51.3845 -.5780521.5
GRID     1324           51.0574 -1.061921.5
GRID     1325           50.5717 -1.3872 1.5
GRID     1326           50.0012 -1.498661.
GRID*    1327                           51.5            -1.49012-7
*       1.
GRID     1328           48.9355 1.05612 1.
GRID     1329           49.4268 1.38479 .5
GRID     1330           48.9286 1.04905 .5
GRID     1331           48.6145 .571037 .5
GRID     1332           48.6145 .571037 1.5
GRID     1333           48.9369 1.05752 1.5
GRID     1334           49.4268 1.38479 1.5
GRID     1335           50.0028 1.49601 1.
GRID*    1336                           48.5            2.16648-5
*       1.
GRID     1337           48.9355 -1.056011.
GRID     1338           49.4266 -1.38517.5
GRID     1339           49.4266 -1.385171.5
GRID     1340           48.937  -1.057461.5
GRID     1341           48.6147 -.5705521.5
GRID     1342           48.6147 -.570552.5
GRID     1343           48.9284 -1.04873.5
GRID     1344           51.0551 1.0622  1.
GRID     1345           50.5726 1.38571 .5
GRID     1346           50.5726 1.38571 1.5
GRID     1347           51.0565 1.06084 1.5
GRID     1348           51.3811 .575351 1.5
GRID     1349           51.3811 .575351 .5
GRID     1350           51.0483 1.06899 .5
$ Loads for Load Case : Default
SPCADD   2       1
LOAD     2      1.      1.       1
$ Displacement Constraints of Load Set : BC1
SPC1     1       123     539     540     541
SPC1     1       123     628     THRU    639
$ Nodal Forces of Load Set : Load1
FORCE    1       477     0      10.     1.       0.      0.
FORCE    1       478     0      10.     1.       0.      0.
FORCE    1       479     0      10.     1.       0.      0.
FORCE    1       480     0      10.     1.       0.      0.
FORCE    1       481     0      10.     1.       0.      0.
FORCE    1       482     0      10.     1.       0.      0.
FORCE    1       484     0      10.     1.       0.      0.
FORCE    1       485     0      10.     1.       0.      0.
FORCE    1       486     0      10.     1.       0.      0.
FORCE    1       487     0      10.     1.       0.      0.
$ Referenced Coordinate Frames
ENDDATA b6b31412
