$ NASTRAN input file created by the Patran 2011 64-Bit input file
$ translator on September 08, 2018 at 21:49:26.
$ Direct Text Input for Nastran System Cell Section
$ Direct Text Input for File Management Section
$ Direct Text Input for Executive Control
$ Linear Static Analysis, Database
SOL 101
CEND
$ Direct Text Input for Global Case Control Data
TITLE = MSC.Nastran job created on 04-Sep-18 at 22:30:39
ECHO = NONE
SUBCASE 1
$ Subcase name : Default
   SUBTITLE=Default
   SPC = 2
   LOAD = 2
   DISPLACEMENT(SORT1,REAL)=ALL
   SPCFORCES(SORT1,REAL)=ALL
   STRESS(SORT1,REAL,VONMISES,BILIN)=ALL
BEGIN BULK
$ Direct Text Input for Bulk Data
PARAM    POST    0
PARAM   PRTMAXIM YES
$ Elements and Element Properties for region : P1
PSOLID   1       1       0
$ Pset: "P1" will be imported as: "psolid.1"
CTETRA   1       1       902     901     900     899     906     907
         908     903     904     905
CTETRA   2       1       898     902     897     896     912     913
         914     909     910     911
CTETRA   3       1       9554    9655    9226    895     9708    918
         9282    915     916     917
CTETRA   4       1       898     902     894     897     912     920
         921     914     913     919
CTETRA   5       1       898     893     894     892     925     926
         921     922     923     924
CTETRA   6       1       898     891     893     892     928     929
         925     922     927     923
CTETRA   7       1       890     889     888     887     933     934
         935     930     931     932
CTETRA   8       1       890     886     885     884     939     940
         941     936     937     938
CTETRA   9       1       890     888     886     883     935     945
         939     942     943     944
CTETRA   10      1       882     881     880     879     949     950
         951     946     947     948
CTETRA   11      1       878     877     876     875     955     956
         957     952     953     954
CTETRA   12      1       878     874     873     872     961     962
         963     958     959     960
CTETRA   13      1       878     871     874     870     967     968
         961     964     965     966
CTETRA   14      1       878     869     868     875     971     972
         973     952     969     970
CTETRA   15      1       878     873     871     868     963     976
         967     973     974     975
CTETRA   16      1       878     867     877     866     980     981
         955     977     978     979
CTETRA   17      1       865     864     863     862     985     986
         987     982     983     984
CTETRA   18      1       862     861     863     885     991     992
         984     988     989     990
CTETRA   19      1       9579    8356    8372    8689    993     8474
         994     9753    8473    8475
CTETRA   20      1       860     859     10410   858     998     999
         1000    995     996     997
$ ... 14136 like lines cut
$ Referenced Material Records
$ Material Record : STEEL
$ Description of Material : Date: 04-Sep-18           Time: 22:28:21
MAT1     1      200000.         .3      7.8-9
$ Nodes of the Entire Model
GRID     1              .090457 .11276  .299953
GRID     2              .0750256.620458 .149935
GRID     3              .669311 .667195 .935156
GRID     4              .831501 .917956 .49998
GRID     5              .925088 .113541 .500021
GRID     6              .538268 .0690256.150122
GRID     7              .10992  .93735  .870176
GRID     8              .659941 .0770202.761034
GRID     9              .151575 .775281 .925963
GRID     10             .101481 .0976524.508324
GRID     11             .924368 .737601 .320011
GRID     12             .074895 .879545 .796556
GRID     13             .428606 .519477 .928566
GRID     14             .397608 .141415 .157684
GRID     15             .925065 .32021  .850016
GRID     16             .831485 .0682495.50003
GRID     17             .718529 .16954  .925015
GRID     18             .850017 .679774 .925065
GRID     19             .532968 .0622598.932259
GRID     20             .402864 .118183 .933568
$ ... 10675 like lines cut
$ Loads for Load Case : Default
SPCADD   2       1
LOAD     2      1.      1.       1
$ Displacement Constraints of Load Set : BC
SPC1     1       123     8695    THRU    8715
SPC1     1       123     9136    THRU    9156
SPC1     1       123     9176    THRU    9574
$ Pressures of Total Load Set : L1
PLOAD4   1       252    .999992                          9988    665
         0       0.     1.       0.
PLOAD4   1       326    .999992                          10024   620
         0       0.     1.       0.
PLOAD4   1       406    .999992                          10317   544
         0       0.     1.       0.
PLOAD4   1       530    .999992                          9993    490
         0       0.     1.       0.
PLOAD4   1       941    .999992                          8658    8373
         0       0.     1.       0.
PLOAD4   1       1030   .999992                          10007   287
         0       0.     1.       0.
PLOAD4   1       1152   .999992                          9979    241
         0       0.     1.       0.
PLOAD4   1       1329   .999992                          10010   206
         0       0.     1.       0.
PLOAD4   1       1472   .999992                          9988    264
         0       0.     1.       0.
PLOAD4   1       1599   .999992                          10021   635
         0       0.     1.       0.
PLOAD4   1       1687   .999992                          10006   298
         0       0.     1.       0.
PLOAD4   1       1730   .999992                          10009   301
         0       0.     1.       0.
PLOAD4   1       1732   .999992                          10013   8369
         0       0.     1.       0.
PLOAD4   1       1736   .999992                          10015   456
         0       0.     1.       0.
PLOAD4   1       1754   .999992                          8670    133
         0       0.     1.       0.
PLOAD4   1       1758   .999992                          10035   133
         0       0.     1.       0.
PLOAD4   1       2103   .999992                          10005   302
         0       0.     1.       0.
PLOAD4   1       2126   .999992                          9974    490
         0       0.     1.       0.
PLOAD4   1       2138   .999992                          10017   57
         0       0.     1.       0.
PLOAD4   1       2245   .999992                          9994    169
         0       0.     1.       0.
$ ... 360 like lines cut
$ Referenced Coordinate Frames
ENDDATA d90fc97d
